# generated using pymatgen
data_ZnTe
_symmetry_space_group_name_H-M   'P 1'
_cell_length_a   8.74666540
_cell_length_b   8.74666540
_cell_length_c   6.18482642
_cell_angle_alpha   135.00000000
_cell_angle_beta   135.00000000
_cell_angle_gamma   60.00000000
_symmetry_Int_Tables_number   1
_chemical_formula_structural   ZnTe
_chemical_formula_sum   'Zn4 Te4'
_cell_volume   236.58246172
_cell_formula_units_Z   4
loop_
 _symmetry_equiv_pos_site_id
 _symmetry_equiv_pos_as_xyz
  1  'x, y, z'
loop_
 _atom_site_type_symbol
 _atom_site_label
 _atom_site_symmetry_multiplicity
 _atom_site_fract_x
 _atom_site_fract_y
 _atom_site_fract_z
 _atom_site_occupancy
  Zn  Zn1  1  0.000000  0.000000  0.000000  1
  Zn  Zn2  1  0.500000  0.500000  0.000000  1
  Zn  Zn3  1  0.000000  0.500000  0.000000  1
  Zn  Zn4  1  0.500000  0.000000  0.000000  1
  Te  Te5  1  0.750000  0.750000  0.250000  1
  Te  Te6  1  0.250000  0.250000  0.250000  1
  Te  Te7  1  0.750000  0.250000  0.250000  1
  Te  Te8  1  0.250000  0.750000  0.250000  1
