# generated using pymatgen
data_ZnTe
_symmetry_space_group_name_H-M   'P 1'
_cell_length_a   4.37333270
_cell_length_b   4.37333270
_cell_length_c   28.67786034
_cell_angle_alpha   85.62699336
_cell_angle_beta   85.62699336
_cell_angle_gamma   60.00000000
_symmetry_Int_Tables_number   1
_chemical_formula_structural   ZnTe
_chemical_formula_sum   'Zn2 Te2'
_cell_volume   473.16492344
_cell_formula_units_Z   2
loop_
 _symmetry_equiv_pos_site_id
 _symmetry_equiv_pos_as_xyz
  1  'x, y, z'
loop_
 _atom_site_type_symbol
 _atom_site_label
 _atom_site_symmetry_multiplicity
 _atom_site_fract_x
 _atom_site_fract_y
 _atom_site_fract_z
 _atom_site_occupancy
  Te  Te1  1  0.578125  0.578125  0.015625  1
  Te  Te2  1  0.203125  0.203125  0.140625  1
  Zn  Zn3  1  0.546875  0.546875  0.109375  1
  Zn  Zn4  1  0.171875  0.171875  0.234375  1
