# generated using pymatgen
data_Zn8Te8CO
_symmetry_space_group_name_H-M   'P 1'
_cell_length_a   8.74666540
_cell_length_b   8.74666540
_cell_length_c   28.67786034
_cell_angle_alpha   85.62699336
_cell_angle_beta   85.62699336
_cell_angle_gamma   60.00000000
_symmetry_Int_Tables_number   1
_chemical_formula_structural   Zn8Te8CO
_chemical_formula_sum   'Zn8 Te8 C1 O1'
_cell_volume   1892.65969377
_cell_formula_units_Z   1
loop_
 _symmetry_equiv_pos_site_id
 _symmetry_equiv_pos_as_xyz
  1  'x, y, z'
loop_
 _atom_site_type_symbol
 _atom_site_label
 _atom_site_symmetry_multiplicity
 _atom_site_fract_x
 _atom_site_fract_y
 _atom_site_fract_z
 _atom_site_occupancy
  Zn  Zn1  1  0.273438  0.273438  0.109375  1
  Zn  Zn2  1  0.273438  0.773438  0.109375  1
  Zn  Zn3  1  0.773438  0.273438  0.109375  1
  Zn  Zn4  1  0.773438  0.773438  0.109375  1
  Zn  Zn5  1  0.085938  0.085937  0.234375  1
  Zn  Zn6  1  0.085938  0.585937  0.234375  1
  Zn  Zn7  1  0.585938  0.085937  0.234375  1
  Zn  Zn8  1  0.585938  0.585937  0.234375  1
  Te  Te9  1  0.289062  0.289063  0.015625  1
  Te  Te10  1  0.289062  0.789063  0.015625  1
  Te  Te11  1  0.789062  0.289063  0.015625  1
  Te  Te12  1  0.789062  0.789063  0.015625  1
  Te  Te13  1  0.101563  0.101562  0.140625  1
  Te  Te14  1  0.101563  0.601562  0.140625  1
  Te  Te15  1  0.601563  0.101562  0.140625  1
  Te  Te16  1  0.601563  0.601562  0.140625  1
  C  C17  1  0.074269  0.074269  0.304387  1
  O  O18  1  0.067093  0.067093  0.347445  1
